8
Coordinates from ORCA-job dihedral
  C   -0.79578766825606      0.11042076287222     -0.28134689284442
  C   -1.26608607432135      1.54909978601261      0.00301377714708
  H   0.11097202477399     -0.12557147459043      0.26599642124258
  H   -1.53983546330040     -0.61990244394370      0.01810562670833
  H   -0.58522181472743     -0.04465113950904     -1.33373102921045
  H   -2.18083448154610      1.56278107248220      0.58585090283816
  H   -0.51946145634967      2.11770216879460      0.54628227343925
  H   -1.47374506627298      2.08712126788153     -0.91617107932053
