8
Coordinates from ORCA-job dihedral
  C   -0.79442300168838      0.10908613521264     -0.27375091701310
  C   -1.27187677515282      1.54852226497698     -0.00222803681584
  H   -0.61539344338199     -0.43564378232700      0.64675542497557
  H   -1.52254851590683     -0.45217331077348     -0.84951924142797
  H   0.13107858293092      0.09736250734476     -0.83966923538571
  H   -1.44792175002247      1.71915716699428      1.05445544966498
  H   -0.53504357251469      2.27841660964060     -0.32048146847554
  H   -2.19387152426372      1.77227240893120     -0.52756197552239
