8
Coordinates from ORCA-job dihedral
  C   -0.78974272219658      0.11759908016610     -0.27640171920945
  C   -1.26326315725963      1.54575262036445     -0.00664806571980
  H   -1.07179076788856     -0.54420206548041      0.53711533037097
  H   -1.23872803431544     -0.28177539668044     -1.18049226963936
  H   0.28915008431515      0.06786935101531     -0.38168928220985
  H   -1.00570071711229      1.86242756977278      0.99925753242634
  H   -0.82684759114432      2.25013393262084     -0.70733103642208
  H   -2.34307709439830      1.61919490822133     -0.09581048959676
