8
Coordinates from ORCA-job dihedral
  C   -0.78720677835410      0.11077282770061     -0.26972232520294
  C   -1.27119646505723      1.55024707487335     -0.01045668016690
  H   -1.52247800704384     -0.61942048425821      0.05157973199877
  H   -0.60711555867947     -0.06688437626672     -1.32457443785789
  H   0.13364662820767     -0.10611278737707      0.26039986955872
  H   -0.54706500085195      2.11855137233318      0.56345250875681
  H   -1.45006797115554      2.08768765722227     -0.93522828037271
  H   -2.19851684706549      1.56215871577253      0.55254961328617
