8
Coordinates from ORCA-job dihedral
  C   -0.79469505537048      0.11182071479834     -0.27216246670091
  C   -1.27151696612576      1.54582559792972     -0.00386316291370
  H   -1.59114345238661     -0.51320737324714     -0.66078144563329
  H   0.03105168836608      0.09403720564886     -0.97584456599282
  H   -0.43055292371261     -0.35475083304253      0.63823645608081
  H   -0.47453063181704      2.26467088330792     -0.16328923920247
  H   -2.07342166834376      1.82327263140187     -0.68142252712180
  H   -1.64519099060975      1.66533117320290      1.00712695148420
