8
Coordinates from ORCA-job dihedral
  C   -0.79066424767395      0.11001623545153     -0.27037125632711
  C   -1.27241959027588      1.54898153178159     -0.00731820873522
  H   -1.53031967937141     -0.47066130249185     -0.81042687858899
  H   0.12742774168796      0.09509703786034     -0.84788949512511
  H   -0.58465441853879     -0.41462690330837      0.65685795276072
  H   -0.53174296764345      2.28053076816455     -0.31207492308182
  H   -2.17773156373129      1.77150843852220     -0.56259875533202
  H   -1.48989527445310      1.71615419401993      1.04182156442957
