8
Coordinates from ORCA-job dihedral
  C   -0.79101076308242      0.11623488196093     -0.26749472851884
  C   -1.27097053999389      1.54323920822951     -0.01078115884896
  H   -1.62881648852311     -0.56424087247406     -0.38495918832587
  H   -0.19294126229300      0.05981088964434     -1.17181372980473
  H   -0.18314638894185     -0.24795438764386      0.55491182458898
  H   -0.43365034829139      2.21978789055453      0.13007489500313
  H   -1.86100728659080      1.91513046434178     -0.84266996834030
  H   -1.88845692228347      1.59499192538677      0.88073205424660
