8
Coordinates from ORCA-job dihedral
  C   -0.78868576254757      0.10973313623956     -0.26766948620726
  C   -1.27382763230012      1.54951107683699     -0.01032338925872
  H   -1.48832190997188     -0.44421516654646     -0.88428029463418
  H   0.16895337982690      0.09504910606016     -0.77684368771228
  H   -0.66863855290461     -0.44360906562020      0.65748856013421
  H   -0.56821032081960      2.28276400718196     -0.38581115886102
  H   -2.22554383200046      1.74355121791408     -0.49312876875956
  H   -1.40572536928257      1.74421568793383      1.04856822529883
