8
Coordinates from ORCA-job dihedral
  C   -0.78809095424919      0.11669177807744     -0.26686080155128
  C   -1.27010684143994      1.54441688310503     -0.01342747848900
  H   -1.62513544052652     -0.57322330197402     -0.31818151336466
  H   -0.25423304414972      0.04247986243537     -1.20924946627294
  H   -0.12786162815606     -0.22488753668974      0.52378648332730
  H   -0.43886567995969      2.20838616076349      0.20288479999902
  H   -1.80495803305054      1.94016272643062     -0.87076157364791
  H   -1.94074837846827      1.58297342785175      0.83980954999949
