8
Coordinates from ORCA-job dihedral
  C   -0.79573983832207      0.11534061810384     -0.27179942824803
  C   -1.27008729000413      1.54247197829175     -0.00443092028708
  H   -1.18300652211021     -0.57549240036796      0.47061594399149
  H   -1.11949231429001     -0.22956148334794     -1.24899280653832
  H   0.28790509496973      0.05320182721880     -0.24658213694278
  H   -0.88237493112064      1.91500636915597      0.93874312424952
  H   -0.93372191224190      2.21809117655958     -0.78493108956639
  H   -2.35348228688074      1.59794191438593      0.03537731334160
