8
Coordinates from ORCA-job dihedral
  C   -0.79291778387196      0.11079088193560     -0.27196526887291
  C   -1.27162369564803      1.54757714724123     -0.00494889778836
  H   -1.56482613234954     -0.49373547480923     -0.73506596779698
  H   0.08105612319867      0.09499126056787     -0.91449274422260
  H   -0.50468595615633     -0.38454062114257      0.64998615618864
  H   -0.50033107137185      2.27417356671007     -0.23751481483017
  H   -2.12620176447059      1.79823273478239     -0.62566897586993
  H   -1.57046971933027      1.68951050471457      1.02767051319232
