8
Coordinates from ORCA-job dihedral
  C   -0.79187396404771      0.11031569496258     -0.27654355004610
  C   -1.26821220232558      1.54997714224286     -0.00274033302379
  H   -0.70080185843280     -0.46069205677758      0.64129481693854
  H   -1.48475514534074     -0.42533745326878     -0.91652162582864
  H   0.17740014916707      0.09335100110343     -0.76286070195567
  H   -1.36999963040358      1.74231333105693      1.05991044408319
  H   -0.57628173959311      2.28462427303610     -0.39999378814819
  H   -2.23547560902353      1.74244806764442     -0.45454526201932
