8
Coordinates from ORCA-job dihedral
  C   -0.78777688331594      0.11749499018687     -0.27855992145210
  C   -1.26105249320900      1.54766106529889     -0.00671128475695
  H   -1.00962073351739     -0.52934103075987      0.56511346814437
  H   -1.29409697326280     -0.30935288776317     -1.13850936050723
  H   0.28214000163427      0.07307607678839     -0.45239340788600
  H   -1.07229201421433      1.83731515106907      1.02214350299665
  H   -0.77513552936459      2.26423959370150     -0.66040324475521
  H   -2.33216537475020      1.63590704147829     -0.16267975178353
