8
Coordinates from ORCA-job dihedral
  C   -0.79887618093333      0.10880641261267     -0.26951091734612
  C   -1.27671791032164      1.54478660844618     -0.00152452551616
  H   -1.38737096934974     -0.62324728026349      0.27257062409457
  H   -0.84210567243449     -0.13447052693936     -1.32590048031428
  H   0.23568748963382     -0.02006524264940      0.03293054645522
  H   -0.67066641395650      2.03121690427547      0.75550818054011
  H   -1.19798198168372      2.15463187820329     -0.89611389024943
  H   -2.31196836095434      1.57534124631459      0.32004046233609
