8
Coordinates from ORCA-job dihedral
  C   -0.80034771903522      0.11153649194604     -0.26934370709940
  C   -1.27576491444348      1.54183250574524     -0.00141593067956
  H   -1.28602660288077     -0.60463737245944      0.38506850427472
  H   -0.98771770563971     -0.18070916070428     -1.29770485965868
  H   0.27059243316713      0.02555636092866     -0.11146742796967
  H   -0.77082400396082      1.97127683815452      0.85803385595721
  H   -1.05403218332346      2.18628005173034     -0.84684615759110
  H   -2.34587930388363      1.58586428465889      0.17167572276648
