8
Coordinates from ORCA-job dihedral
  C   -0.79855556497391      0.11347259305182     -0.27019655551722
  C   -1.27336228703571      1.54170865639124     -0.00279422559390
  H   -1.23493820648614     -0.59082632913874      0.43070287080004
  H   -1.05528961615503     -0.20475731901024     -1.27581619307100
  H   0.28115576606077      0.04149882004882     -0.17969194986706
  H   -0.82519922955662      1.94264074634339      0.90100710135095
  H   -0.99145940869240      2.20193424257713     -0.81752166993946
  H   -2.35235145316093      1.59132858973656      0.10231062183766
