8
Coordinates from ORCA-job dihedral
  C   -0.78704813987040      0.11643385525938     -0.27992937434865
  C   -1.26042204549568      1.54930940519662     -0.00606476599429
  H   -0.94135882737233     -0.51474630765428      0.59006614256752
  H   -1.34666456161184     -0.33791569268332     -1.09108468436711
  H   0.26848304107912      0.07803451348330     -0.52638076525885
  H   -1.14239062967035      1.81288304997712      1.03996320059056
  H   -0.72359207521878      2.27564908144224     -0.60656716345137
  H   -2.31700676183971      1.65735209497890     -0.23200258973782
