8
Coordinates from ORCA-job dihedral
  C   -0.79612093383634      0.11658455393307     -0.27957789797836
  C   -1.26386280419605      1.54375253494489      0.00023953475195
  H   -0.15105268233435     -0.24573231512242      0.51530232132663
  H   -1.63763482784597     -0.56577799054952     -0.34858158123085
  H   -0.23858048237551      0.05782989586361     -1.20892137295814
  H   -1.91887668007296      1.57957719209467      0.86522462160674
  H   -0.42442782465036      2.20603594938384      0.18655205051359
  H   -1.81944376468845      1.94473017945186     -0.84223767603156
