8
ethane.pdb
C         -0.79500        0.11000       -0.27800
C         -1.26800        1.54900        0.00000
H          0.17900       -0.04800        0.18500
H         -1.51400       -0.59600        0.13700
H         -0.71300       -0.04400       -1.35400
H         -2.24300        1.52300        0.48600
H         -0.55000        2.04800        0.65200
H         -1.34600        2.09500       -0.94000
